@<TRIPOS>MOLECULE
5SQ
   42    44     1     0     0
SMALL
USER_CHARGES


@<TRIPOS>ATOM
      1 CA1        -14.2070     1.2340    43.9080 c3        60 5SQ       0.240956
      2 CA2        -16.7950    -1.2340    43.6160 cc        60 5SQ       0.057839
      3 CA3        -14.4800    -0.6090    46.3810 c3        60 5SQ      -0.065422
      4 CB1        -14.5890     2.1730    42.7390 c3        60 5SQ      -0.123635
      5 CB2        -17.9060    -2.0070    43.0390 cf        60 5SQ       0.071759
      6 CG1        -13.7210     3.3850    42.5950 cc        60 5SQ       0.134775
      7 CG2        -18.5520    -1.8220    41.7360 ca        60 5SQ       0.145102
      8 CD1        -19.5930    -2.6960    41.3830 ca        60 5SQ       0.039291
      9 CD2        -18.1910    -0.8210    40.8270 ca        60 5SQ       0.037110
     10 CE1        -20.2560    -2.5760    40.1560 ca        60 5SQ       0.142702
     11 CE2        -18.8500    -0.6970    39.5990 ca        60 5SQ       0.175322
     12 CZ1        -19.8760    -1.5730    39.2730 ca        60 5SQ       0.251510
     13 OH         -20.4900    -1.4150    38.0670 oh        60 5SQ      -0.560437
     14 C1         -15.2070     0.1150    44.0800 cd        60 5SQ       0.203553
     15 C1H        -12.0300     4.6720    42.8890 cd        60 5SQ       0.160697
     16 N1         -12.8500     0.6580    43.7460 n         60 5SQ      -0.434452
     17 N1H        -12.5130     3.5050    43.2480 nc        60 5SQ      -0.131053
     18 C2         -16.2850    -1.5990    45.0060 c         60 5SQ       0.245491
     19 C2H        -13.9430     4.5000    41.8120 cd        60 5SQ       0.262395
     20 N2         -16.1260    -0.2400    43.1130 nc        60 5SQ      -0.157542
     21 N2H        -12.8610     5.3090    42.0140 na        60 5SQ      -0.345288
     22 O2         -16.7100    -2.4800    45.7140 o         60 5SQ      -0.231060
     23 C3         -14.9580    -0.5950    47.6270 c         60 5SQ       0.197959
     24 N3         -15.2730    -0.7030    45.1830 n         60 5SQ      -0.214961
     25 HA1        -21.1840    -2.0910    37.9820 ho        60 5SQ       0.045225
     26 HA2        -18.5600     0.0840    38.9030 ha        60 5SQ      -0.048762
     27 HA3        -17.3950    -0.1160    41.0480 ha        60 5SQ       0.040812
     28 HB1        -21.0570    -3.3370    39.9150 ha        60 5SQ      -0.057268
     29 HB2        -19.9050    -3.4870    42.0630 ha        60 5SQ      -0.058639
     30 HB3        -18.2850    -2.8020    43.6730 ha        60 5SQ       0.007830
     31 H10        -14.4940    -1.5780    46.8930 h1        60 5SQ       0.020054
     32 N          -15.5390     0.6080    47.6020 N3        60 5SQ       0.000000
     33 H14        -13.4420    -0.3610    46.1460 h1        60 5SQ      -0.021523
     34 O3         -14.1700    -0.8490    48.5230 o         60 5SQ      -0.257297
     35 H16        -14.2000     1.8270    44.8310 h1        60 5SQ       0.061525
     36 H22        -12.7650     0.1770    42.7320 hn        60 5SQ       0.023879
     37 C          -11.8680     0.6760    44.4780 C         60 5SQ       0.000000
     38 H24        -15.6230     2.5170    42.8780 hc        60 5SQ       0.002298
     39 H26        -14.5620     1.6240    41.7880 hc        60 5SQ       0.051021
     40 H28        -14.7530     4.7730    41.1500 h4        60 5SQ       0.033072
     41 H30        -12.6990     6.2140    41.5940 hn        60 5SQ       0.032665
     42 H32        -11.0950     5.1030    43.2220 h5        60 5SQ       0.108462
@<TRIPOS>BOND
     1     1     4 1   
     2     1    16 1   
     3     1    14 1   
     4     1    35 1   
     5     2    18 1   
     6     3    24 1   
     7     3    33 1   
     8     3    31 1   
     9     3    23 1   
    10     4    39 1   
    11     4     6 1   
    12     4    38 1   
    13     5     7 1   
    14     5    30 1   
    15     6    19 2   
    16     6    17 1   
    17     7     9 ar  
    18     7     8 ar  
    19     8    10 ar  
    20     8    29 1   
    21     9    11 ar  
    22     9    27 1   
    23    10    12 ar  
    24    10    28 1   
    25    11    26 1   
    26    11    12 ar  
    27    12    13 1   
    28    13    25 1   
    29    14    24 1   
    30    15    21 1   
    31    15    42 1   
    32    15    17 2   
    33    16    36 1   
    34    16    37 1   
    35    18    24 1   
    36    18    22 2   
    37    19    40 1   
    38    19    21 1   
    39    21    41 1   
    40    23    34 2   
    41    23    32 1   
    42     5     2 2   
    43    14    20 2   
    44    20     2 1   
@<TRIPOS>SUBSTRUCTURE
    60 5SQ         1 RESIDUE    0 ****  ****    0 ROOT