@<TRIPOS>MOLECULE
*****
 41 43 0 0 0
SMALL
USER_CHARGES

@<TRIPOS>ATOM
      1 CA1       -14.2070    1.2340   43.9080 c3       60  5SQ       0.284870
      2 CA2       -16.7950   -1.2340   43.6160 cc       60  5SQ       0.122463
      3 CA3       -14.4800   -0.6090   46.3810 c3       60  5SQ      -0.184860
      4 CB1       -14.5890    2.1730   42.7390 c3       60  5SQ      -0.153739
      5 CB2       -17.9060   -2.0070   43.0390 cf       60  5SQ       0.321445
      6 CG1       -13.7210    3.3850   42.5950 cc       60  5SQ       0.062913
      7 CG2       -18.5520   -1.8220   41.7360 ca       60  5SQ       0.152654
      8 CD1       -19.5930   -2.6960   41.3830 ca       60  5SQ       0.038261
      9 CD2       -18.1910   -0.8210   40.8270 ca       60  5SQ      -0.062619
     10 CE1       -20.2560   -2.5760   40.1560 ca       60  5SQ       0.051049
     11 CE2       -18.8500   -0.6970   39.5990 ca       60  5SQ       0.193390
     12 CZ1       -19.8760   -1.5730   39.2730 ca       60  5SQ       0.126766
     13 OH        -20.4900   -1.4150   38.0670 o        60  5SQ      -0.214712
     14 C1        -15.2070    0.1150   44.0800 cd       60  5SQ       0.198357
     15 C1H       -12.0300    4.6720   42.8890 cd       60  5SQ       0.210910
     16 N1        -12.8500    0.6580   43.7460 n        60  5SQ      -0.403771
     17 N1H       -12.5130    3.5050   43.2480 nc       60  5SQ      -0.187959
     18 C2        -16.2850   -1.5990   45.0060 c        60  5SQ       0.213449
     19 C2H       -13.9430    4.5000   41.8120 cd       60  5SQ       0.027877
     20 N2        -16.1260   -0.2400   43.1130 nc       60  5SQ      -0.235365
     21 N2H       -12.8610    5.3090   42.0140 na       60  5SQ      -0.348409
     22 O2        -16.7100   -2.4800   45.7140 o        60  5SQ      -0.168584
     23 C3        -14.9580   -0.5950   47.6270 c        60  5SQ       0.064013
     24 N3        -15.2730   -0.7030   45.1830 n        60  5SQ       0.072254
     25 HA2       -18.5600    0.0840   38.9030 ha       60  5SQ      -0.044931
     26 HA3       -17.3950   -0.1160   41.0480 ha       60  5SQ       0.013313
     27 HB1       -21.0570   -3.3370   39.9150 ha       60  5SQ       0.020516
     28 HB2       -19.9050   -3.4870   42.0630 ha       60  5SQ       0.100711
     29 HB3       -18.2850   -2.8020   43.6730 ha       60  5SQ      -0.140158
     30 H10       -14.4940   -1.5780   46.8930 h1       60  5SQ      -0.099987
     31 N         -15.5390    0.6080   47.6020 N3       60  5SQ       0.000000
     32 H14       -13.4420   -0.3610   46.1460 h1       60  5SQ      -0.064415
     33 O3        -14.1700   -0.8490   48.5230 o        60  5SQ      -0.372907
     34 H16       -14.2000    1.8270   44.8310 h1       60  5SQ       0.102298
     35 H22       -12.7650    0.1770   42.7320 hn       60  5SQ      -0.069453
     36 C         -11.8680    0.6760   44.4780 C        60  5SQ       0.000000
     37 H24       -15.6230    2.5170   42.8780 hc       60  5SQ      -0.045580
     38 H26       -14.5620    1.6240   41.7880 hc       60  5SQ      -0.039151
     39 H28       -14.7530    4.7730   41.1500 h4       60  5SQ      -0.000104
     40 H30       -12.6990    6.2140   41.5940 hn       60  5SQ      -0.276861
     41 H32       -11.0950    5.1030   43.2220 h5       60  5SQ      -0.051955
@<TRIPOS>BOND
     1     1     4    1
     2     1    16    1
     3     1    14    1
     4     1    34    1
     5     2    18    1
     6     3    24    1
     7     3    32    1
     8     3    30    1
     9     3    23    1
    10     4    38    1
    11     4     6    1
    12     4    37    1
    13     5     7    1
    14     5    29    1
    15     6    19    2
    16     6    17    1
    17     7     9    ar
    18     7     8    ar
    19     8    10    ar
    20     8    28    1
    21     9    11    ar
    22     9    26    1
    23    10    12    ar
    24    10    27    1
    25    11    25    1
    26    11    12    ar
    27    12    13    1
    28    14    24    1
    29    15    21    1
    30    15    41    1
    31    15    17    2
    32    16    35    1
    33    16    36    1
    34    18    24   am
    35    18    22    2
    36    19    39    1
    37    19    21    1
    38    21    40    1
    39    23    33    2
    40    23    31    1
    41     5     2    2
    42    14    20    2
    43    20     2    1